Version 4
SHEET 1 880 680
WIRE -400 -48 -432 -48
WIRE -272 -48 -320 -48
WIRE -512 48 -576 48
WIRE -432 48 -432 -48
WIRE -432 48 -512 48
WIRE -416 48 -432 48
WIRE -512 64 -512 48
WIRE -704 80 -784 80
WIRE -576 80 -576 48
WIRE -576 80 -624 80
WIRE -416 80 -416 48
WIRE -400 80 -416 80
WIRE -272 96 -272 -48
WIRE -272 96 -336 96
WIRE -240 96 -272 96
WIRE 128 96 16 96
WIRE 304 96 224 96
WIRE 400 96 304 96
WIRE 528 96 480 96
WIRE 672 96 528 96
WIRE -400 112 -416 112
WIRE 16 144 16 96
WIRE 304 144 304 96
WIRE 528 144 528 96
WIRE 672 144 672 96
WIRE -784 160 -784 80
WIRE -512 160 -512 144
WIRE -464 160 -512 160
WIRE -416 160 -416 112
WIRE -416 160 -464 160
WIRE -464 176 -464 160
WIRE 16 272 16 224
WIRE 304 272 304 240
WIRE 304 272 16 272
WIRE 400 272 304 272
WIRE 528 272 528 208
WIRE 528 272 400 272
WIRE 672 272 672 224
WIRE 672 272 528 272
WIRE 400 288 400 272
FLAG 400 288 0
FLAG -784 240 0
FLAG -1024 32 Vs1
FLAG 144 48 Vs
FLAG 352 160 Vs2
FLAG -464 176 0
FLAG -368 64 +5
FLAG -368 128 0
SYMBOL voltage 16 128 R0
WINDOW 123 0 0 Left 0
WINDOW 39 24 124 Left 2
SYMATTR SpiceLine Rser=0
SYMATTR InstName V1
SYMATTR Value 100
SYMBOL nmos 224 48 R90
SYMATTR InstName M1
SYMBOL ind 496 80 R90
WINDOW 0 5 56 VBottom 2
WINDOW 3 32 56 VTop 2
SYMATTR InstName L1
SYMATTR Value 1.3m
SYMBOL cap 512 144 R0
SYMATTR InstName C1
SYMATTR Value 16.7µ
SYMBOL res 656 128 R0
SYMATTR InstName R1
SYMATTR Value 20m
SYMBOL voltage -784 144 R0
WINDOW 3 -43 143 Left 2
WINDOW 123 0 0 Left 0
WINDOW 39 0 0 Left 0
SYMATTR Value PULSE(0 5 0 .1n .1n .05m .1m)
SYMATTR InstName V2
SYMBOL nmos 352 240 R180
SYMATTR InstName M2
SYMBOL OpAmps\\UniversalOpamp2 -368 96 R0
SYMATTR InstName U1
SYMBOL res -608 64 R90
WINDOW 0 0 56 VBottom 2
WINDOW 3 32 56 VTop 2
SYMATTR InstName RI
SYMATTR Value 1k
SYMBOL voltage -512 48 R0
WINDOW 123 0 0 Left 0
WINDOW 39 0 0 Left 0
SYMATTR InstName V3
SYMATTR Value 5
SYMBOL res -304 -64 R90
WINDOW 0 0 56 VBottom 2
WINDOW 3 32 56 VTop 2
SYMATTR InstName RF
SYMATTR Value 1k
TEXT -816 328 Left 2 !.tran 0 5m 0
