Version 4
SHEET 1 880 680
WIRE 128 96 16 96
WIRE 288 96 224 96
WIRE 416 96 368 96
WIRE 560 96 416 96
WIRE 16 144 16 96
WIRE 416 144 416 96
WIRE 560 144 560 96
WIRE 16 272 16 224
WIRE 288 272 16 272
WIRE 416 272 416 208
WIRE 416 272 288 272
WIRE 560 272 560 224
WIRE 560 272 416 272
WIRE 288 288 288 272
FLAG 288 288 0
FLAG -336 224 0
FLAG -336 144 Vs
FLAG 144 48 Vs
SYMBOL voltage 16 128 R0
WINDOW 123 0 0 Left 0
WINDOW 39 24 124 Left 2
SYMATTR SpiceLine Rser=0
SYMATTR InstName V1
SYMATTR Value 100
SYMBOL nmos 224 48 R90
SYMATTR InstName M1
SYMBOL ind 384 80 R90
WINDOW 0 5 56 VBottom 2
WINDOW 3 32 56 VTop 2
SYMATTR InstName L1
SYMATTR Value 1.3m
SYMBOL cap 400 144 R0
SYMATTR InstName C1
SYMATTR Value 16.7µ
SYMBOL res 544 128 R0
SYMATTR InstName R1
SYMATTR Value 20m
SYMBOL voltage -336 128 R0
WINDOW 3 -43 143 Left 2
WINDOW 123 0 0 Left 0
WINDOW 39 0 0 Left 0
SYMATTR InstName V2
SYMATTR Value PULSE(0 5 0 .1n .1n .05m .1m)
TEXT -370 312 Left 2 !.tran 0 5m 0
