Version 4
SHEET 1 880 680
WIRE 128 16 -64 16
WIRE -64 96 -64 16
WIRE 0 96 -64 96
WIRE 128 112 128 16
WIRE 128 112 64 112
WIRE 256 112 128 112
WIRE 416 112 336 112
WIRE 512 112 416 112
WIRE 672 112 592 112
WIRE 768 112 672 112
WIRE 0 128 -176 128
WIRE 416 160 416 112
WIRE 672 160 672 112
WIRE -176 176 -176 128
WIRE 416 240 416 224
WIRE 672 240 672 224
FLAG -176 256 0
FLAG 416 240 0
FLAG 672 240 0
FLAG 768 112 Vout
FLAG -176 128 Vin
FLAG 32 144 0
FLAG 32 80 +5v
FLAG -400 144 0
FLAG -400 64 +5v
SYMBOL voltage -176 160 R0
WINDOW 123 0 0 Left 0
WINDOW 39 0 0 Left 0
SYMATTR InstName V1
SYMATTR Value PULSE(0 16.8 0 0 0 25u 50u)
SYMBOL cap 400 160 R0
SYMATTR InstName C1
SYMATTR Value 0.22µ
SYMBOL res 352 96 R90
WINDOW 0 0 56 VBottom 2
WINDOW 3 32 56 VTop 2
SYMATTR InstName R1
SYMATTR Value 1800
SYMBOL cap 656 160 R0
SYMATTR InstName C2
SYMATTR Value 0.22µ
SYMBOL res 608 96 R90
WINDOW 0 0 56 VBottom 2
WINDOW 3 32 56 VTop 2
SYMATTR InstName R2
SYMATTR Value 1800
SYMBOL OpAmps\\UniversalOpamp2 32 112 R0
SYMATTR InstName U1
SYMBOL voltage -400 48 R0
WINDOW 123 0 0 Left 0
WINDOW 39 0 0 Left 0
SYMATTR InstName V2
SYMATTR Value 5
TEXT -208 272 Left 2 !.tran 1
TEXT -232 88 Left 2 ;20kHz Square Wave
TEXT 552 24 Left 2 ;2nd order low pass filter
TEXT 576 288 Left 2 ;~402Hz cutoff frequency
RECTANGLE Normal 752 272 256 48 2
